data/rfi_simulation/der000/ckt7_Mon_rfi_10_der000.csv
fault_bus,fault_type,fault_R_ohm,Va_mag_pu,Va_ang_deg,Vb_mag_pu,Vb_ang_deg,Vc_mag_pu,Vc_ang_deg,Ia_mag_A,Ia_ang_deg,Ib_mag_A,Ib_ang_deg,Ic_mag_A,Ic_ang_deg
318412,SLG,0,0.125494,-116.711,1.03627,-151.5,1.034636,88.7356,4.2398,-144.1734,29.6883,-179.2527,39.6803,61.306
318412,SLG,10,1.027757,-31.3239,1.032577,-150.9841,1.025021,88.9002,33.5721,-58.834,29.7896,-178.726,40.041,61.4933
318412,SLG,20,1.027763,-31.301,1.03258,-150.9841,1.025019,88.9,33.5719,-58.8111,29.7896,-178.726,40.0411,61.4932
318412,SLG,30,1.027765,-31.2934,1.03258,-150.984,1.025018,88.8999,33.5718,-58.8035,29.7896,-178.726,40.0411,61.4931
318412,SLG,40,1.027766,-31.2895,1.032581,-150.984,1.025018,88.8999,33.5718,-58.7996,29.7895,-178.726,40.0412,61.4931
318412,LL,0,0.119637,-113.4039,0.132616,123.5943,1.0352,88.4047,4.0421,-140.8656,4.0139,95.9241,39.6609,60.974
318412,LL,10,1.02776,-31.3236,1.032563,-151.03,1.025018,88.9002,33.572,-58.8337,29.79,-178.7718,40.0412,61.4934
318412,LL,20,1.027765,-31.3009,1.032573,-151.007,1.025017,88.9,33.5718,-58.8109,29.7898,-178.7489,40.0412,61.4932
318412,LL,30,1.027766,-31.2933,1.032576,-150.9993,1.025017,88.9,33.5718,-58.8034,29.7897,-178.7412,40.0412,61.4931
318412,LL,40,1.027767,-31.2895,1.032577,-150.9955,1.025017,88.8999,33.5718,-58.7996,29.7896,-178.7374,40.0412,61.4931
318412,3LG,0,0.128461,-113.4584,0.129081,126.8404,0.128118,6.7355,4.3402,-140.9234,3.9072,99.1711,5.1661,-20.6339
318412,3LG,10,1.027755,-31.3237,1.032568,-151.0296,1.025003,88.8542,33.5721,-58.8338,29.7899,-178.7715,40.0417,61.4474
318412,3LG,20,1.027762,-31.3009,1.032575,-151.0068,1.02501,88.877,33.5719,-58.811,29.7897,-178.7487,40.0415,61.4702
318412,3LG,30,1.027765,-31.2933,1.032577,-150.9992,1.025012,88.8846,33.5718,-58.8034,29.7896,-178.7411,40.0414,61.4778
318412,3LG,40,1.027766,-31.2895,1.032579,-150.9954,1.025013,88.8884,33.5718,-58.7996,29.7896,-178.7373,40.0413,61.4816
243937,SLG,0,0.00661,83.7725,1.323118,173.2848,1.725061,102.7239,0.2233,56.1803,36.4513,145.469,63.2852,75.2378
243937,SLG,10,1.021151,-31.4324,1.034885,-151.2412,1.027974,89.1416,33.7826,-58.925,29.7261,-178.99,39.9295,61.7279
243937,SLG,20,1.024451,-31.3554,1.033737,-151.1131,1.026495,89.0214,33.6771,-58.8567,29.7577,-178.8584,39.9853,61.6111
243937,SLG,30,1.025555,-31.3297,1.033353,-151.0702,1.026002,88.981,33.6419,-58.8339,29.7682,-178.8144,40.0039,61.5719
243937,SLG,40,1.026108,-31.3168,1.033161,-151.0487,1.025756,88.9608,33.6244,-58.8225,29.7736,-178.7923,40.0132,61.5522
243937,LL,0,0.024436,-46.501,0.033306,99.3748,1.471795,83.6733,0.8259,-73.9687,1.0079,71.6979,53.9938,56.1873
243937,LL,10,1.024089,-31.1919,1.028314,-151.3931,1.03023,88.8854,33.6886,-58.6923,29.9078,-179.1225,39.8447,61.4665
243937,LL,20,1.025917,-31.2346,1.03044,-151.1892,1.027638,88.8927,33.6304,-58.7398,29.8487,-178.9248,39.9421,61.4798
243937,LL,30,1.026532,-31.249,1.031152,-151.1209,1.026767,88.8951,33.6109,-58.7558,29.829,-178.8586,39.975,61.4842
243937,LL,40,1.02684,-31.2562,1.031509,-151.0868,1.026331,88.8963,33.6011,-58.7638,29.8191,-178.8255,39.9915,61.4864
243937,3LG,0,0.031969,-96.3867,0.032108,143.9129,0.031874,23.7912,1.0801,-123.8518,0.9719,116.2436,1.2853,-3.5783
243937,3LG,10,1.026391,-31.4474,1.031204,-151.1527,1.023632,88.7306,33.6154,-58.9539,29.8276,-178.8905,40.0938,61.3269
243937,3LG,20,1.027081,-31.3628,1.031894,-151.0684,1.024325,88.8151,33.5935,-58.8711,29.8085,-178.8083,40.0674,61.4099
243937,3LG,30,1.027311,-31.3346,1.032123,-151.0403,1.024556,88.8434,33.5862,-58.8435,29.8022,-178.7809,40.0587,61.4376
243937,3LG,40,1.027425,-31.3204,1.032238,-151.0262,1.024671,88.8575,33.5826,-58.8296,29.799,-178.7671,40.0543,61.4514
157347,SLG,0,0.403508,-23.9794,1.085737,-169.6313,1.338723,95.763,13.6332,-51.4443,29.9117,162.5531,49.1121,68.277
157347,SLG,10,1.019269,-31.7633,1.037554,-151.2115,1.026192,89.2558,33.8431,-59.251,29.653,-178.9681,39.9967,61.8462
157347,SLG,20,1.023517,-31.5228,1.035096,-151.0977,1.025579,89.0792,33.7069,-59.0217,29.7203,-178.847,40.0199,61.671
157347,SLG,30,1.024934,-31.4417,1.034264,-151.0598,1.025386,89.0197,33.6617,-58.9443,29.7432,-178.8066,40.0272,61.612
157347,SLG,40,1.025643,-31.401,1.033846,-151.0408,1.025291,88.9898,33.6391,-58.9054,29.7547,-178.7865,40.0308,61.5824
157347,LL,0,0.503387,-33.1633,0.339474,-162.6163,1.246714,83.6788,17.0076,-60.6287,10.2755,169.7153,45.7366,56.193
157347,LL,10,1.020446,-31.4068,1.02906,-151.6931,1.031126,89.0269,33.8052,-58.8975,29.8871,-179.4247,39.8111,61.6058
157347,LL,20,1.024067,-31.3438,1.030853,-151.3409,1.028089,88.9657,33.6893,-58.8441,29.8373,-179.0777,39.9252,61.5518
157347,LL,30,1.025292,-31.3222,1.031437,-151.2224,1.027069,88.9443,33.6503,-58.8257,29.8211,-178.961,39.9636,61.5327
157347,LL,40,1.025908,-31.3113,1.031726,-151.163,1.026557,88.9334,33.6307,-58.8164,29.8131,-178.9024,39.9829,61.523
157347,3LG,0,0.442347,-43.2995,0.444283,-163.0078,0.441084,76.8769,14.9452,-70.7646,13.448,169.3228,17.7859,49.5075
157347,3LG,10,1.025387,-31.6344,1.030204,-151.3397,1.022633,88.5436,33.6473,-59.1382,29.8553,-179.0746,40.1318,61.1422
157347,3LG,20,1.026586,-31.4568,1.031401,-151.1624,1.023833,88.7211,33.6092,-58.9638,29.8221,-178.9009,40.0861,61.3171
157347,3LG,30,1.026982,-31.3973,1.031797,-151.1031,1.02423,88.7806,33.5966,-58.9054,29.8112,-178.8427,40.0711,61.3756
157347,3LG,40,1.02718,-31.3676,1.031994,-151.0734,1.024427,88.8104,33.5904,-58.8761,29.8058,-178.8136,40.0636,61.4049
298162,SLG,0,0.011076,130.7939,1.221479,-172.4397,1.394613,101.4209,0.3739,103.2887,33.6512,159.7446,51.1625,73.9347
298162,SLG,10,1.01155,-32.7403,1.045065,-151.2097,1.022509,89.621,34.0937,-60.2078,29.4494,-178.9887,40.1364,62.22
298162,SLG,20,1.019683,-32.0146,1.038897,-151.094,1.023649,89.2618,33.8298,-59.5033,29.6164,-178.8546,40.0931,61.8581
298162,SLG,30,1.022384,-31.7703,1.036808,-151.0567,1.02408,89.1414,33.7431,-59.2661,29.6734,-178.8111,40.0767,61.7368
298162,SLG,40,1.023732,-31.6477,1.035757,-151.0383,1.024304,89.0811,33.7,-59.1471,29.7022,-178.7896,40.0682,61.6759
298162,LL,0,0.006735,30.5265,0.013246,78.3571,1.343191,85.6951,0.2276,2.9851,0.4008,50.6589,49.2759,58.2092
298162,LL,10,1.008945,-32.0135,1.028737,-152.6602,1.034994,89.3853,34.1791,-59.4743,29.8959,179.6092,39.6669,61.9551
298162,LL,20,1.018254,-31.6521,1.030792,-151.827,1.029987,89.1511,33.8758,-59.1371,29.839,-179.5636,39.8538,61.7327
298162,LL,30,1.021403,-31.5288,1.031419,-151.5471,1.028325,89.0693,33.7745,-59.0221,29.8216,-179.2855,39.9162,61.6548
298162,LL,40,1.022986,-31.4667,1.031721,-151.4067,1.027496,89.0277,33.7238,-58.9641,29.8133,-179.1461,39.9475,61.6151
298162,3LG,0,0.005804,-101.9215,0.005823,138.3143,0.005788,18.2116,0.1961,-129.3866,0.1763,110.645,0.2334,-9.1579
298162,3LG,10,1.021308,-32.2412,1.026159,-151.9479,1.018597,87.937,33.7776,-59.7342,29.9679,-179.6709,40.2861,60.545
298162,3LG,20,1.024566,-31.761,1.029399,-151.4674,1.021835,88.4171,33.6734,-59.2626,29.8776,-179.1999,40.1621,61.0176
298162,3LG,30,1.02564,-31.6003,1.030466,-151.3066,1.022902,88.5777,33.6392,-59.1048,29.848,-179.0423,40.1215,61.1758
298162,3LG,40,1.026175,-31.5199,1.030998,-151.2261,1.023433,88.6581,33.6222,-59.0257,29.8333,-178.9633,40.1013,61.2549
165448,SLG,0,0.010971,130.85,1.226201,-172.0699,1.387095,101.6371,0.3704,103.3444,33.7813,160.1144,50.8867,74.1509
165448,SLG,10,1.010707,-32.8669,1.046049,-151.2014,1.0219,89.6649,34.1214,-60.3322,29.423,-178.9834,40.1597,62.2653
165448,SLG,20,1.01927,-32.0787,1.039397,-151.0891,1.023326,89.2836,33.8431,-59.5663,29.6028,-178.8512,40.1054,61.8807
165448,SLG,30,1.02211,-31.8132,1.037143,-151.0533,1.02386,89.1559,33.7518,-59.3083,29.6642,-178.8087,40.0851,61.7518
165448,SLG,40,1.023528,-31.6799,1.03601,-151.0356,1.024138,89.092,33.7065,-59.1788,29.6953,-178.7877,40.0745,61.6872
165448,LL,0,0.006707,32.725,0.012797,77.6042,1.341554,85.8794,0.2266,5.1831,0.3872,49.9046,49.2159,58.3935
165448,LL,10,1.00748,-32.0951,1.028848,-152.7774,1.035384,89.4356,34.2274,-59.552,29.8929,179.4916,39.6524,62.0046
165448,LL,20,1.017512,-31.6941,1.030872,-151.886,1.030171,89.1775,33.8998,-59.1771,29.8368,-179.6229,39.8469,61.7587
165448,LL,30,1.020906,-31.5571,1.031478,-151.5865,1.028445,89.0872,33.7905,-59.0491,29.82,-179.3252,39.9117,61.6724
165448,LL,40,1.022613,-31.488,1.031767,-151.4363,1.027585,89.0412,33.7358,-58.9845,29.812,-179.1758,39.9441,61.6284
165448,3LG,0,0.005388,-101.9749,0.005406,138.2545,0.005374,18.1541,0.182,-129.44,0.1636,110.5852,0.2167,-9.2153
165448,3LG,10,1.020809,-32.3152,1.025667,-152.0223,1.018107,87.8631,33.7936,-59.8069,29.9817,-179.7439,40.3049,60.4722
165448,3LG,20,1.024321,-31.7982,1.029158,-151.5048,1.021595,88.3799,33.6812,-59.2992,29.8843,-179.2367,40.1713,60.981
165448,3LG,30,1.025478,-31.6252,1.030307,-151.3316,1.022743,88.5529,33.6444,-59.1292,29.8524,-179.0668,40.1276,61.1513
165448,3LG,40,1.026053,-31.5385,1.030878,-151.2448,1.023314,88.6395,33.6261,-59.0441,29.8366,-178.9817,40.1058,61.2366
165449,SLG,0,0.009329,129.0938,1.260892,-170.6997,1.359917,103.1646,0.3149,101.5776,34.737,161.4846,49.8897,75.6784
165449,SLG,10,1.002599,-34.1328,1.056411,-151.1318,1.015789,90.1384,34.3895,-61.5772,29.1487,-178.945,40.3942,62.7528
165449,SLG,20,1.015358,-32.7222,1.044681,-151.0432,1.020004,89.5174,33.9696,-60.1996,29.4597,-178.821,40.2321,62.1221
165449,SLG,30,1.019536,-32.2445,1.040687,-151.02,1.021585,89.311,33.8345,-59.7328,29.5677,-178.786,40.1717,61.912
165449,SLG,40,1.02161,-32.0042,1.038676,-151.0097,1.022409,89.2079,33.7679,-59.4981,29.6224,-178.7697,40.1403,61.8071
165449,LL,0,0.005895,40.5765,0.009579,72.4418,1.340945,86.8614,0.1992,13.0237,0.2898,44.7289,49.1935,59.3754
165449,LL,10,0.993082,-32.8708,1.030675,-153.9594,1.03989,89.9513,34.7101,-60.2909,29.8422,178.3043,39.4861,62.5097
165449,LL,20,1.010191,-32.1002,1.032142,-152.4811,1.032234,89.4525,34.1383,-59.5642,29.8017,179.7782,39.7697,62.0288
165449,LL,30,1.016001,-31.8321,1.032407,-151.984,1.029773,89.2743,33.9487,-59.3112,29.7943,-179.7254,39.8618,61.8564
165449,LL,40,1.018925,-31.6958,1.032496,-151.7347,1.028562,89.1829,33.8542,-59.1826,29.7919,-179.4764,39.9073,61.7679
165449,3LG,0,0.003191,-103.3169,0.003199,136.8397,0.003184,16.7671,0.1078,-130.782,0.0968,109.1704,0.1284,-10.6023
165449,3LG,10,1.016522,-33.0329,1.021495,-152.7473,1.013976,87.1465,33.9318,-60.5133,30.0989,179.5433,40.4644,59.765
165449,3LG,20,1.02224,-32.16,1.027139,-151.8702,1.019594,88.0189,33.7477,-59.6554,29.9405,-179.5961,40.2478,60.6246
165449,3LG,30,1.024104,-31.867,1.028976,-151.5758,1.021424,88.3116,33.6881,-59.3674,29.8894,-179.3071,40.1778,60.9131
165449,3LG,40,1.025029,-31.7201,1.029886,-151.4282,1.022331,88.4583,33.6587,-59.223,29.8641,-179.1622,40.1433,61.0577
287274,SLG,0,0.074387,-56.5809,1.270425,-167.7046,1.294421,103.7125,2.5134,-84.0394,34.9997,164.4796,47.4869,76.2264
287274,SLG,10,0.992644,-34.845,1.062166,-151.118,1.012738,90.4173,34.7251,-62.264,29.2625,-178.9337,40.5124,63.0387
287274,SLG,20,1.010435,-33.0979,1.04775,-151.0249,1.018194,89.6578,34.1303,-60.5625,29.3774,-178.812,40.3015,62.2667
287274,SLG,30,1.016271,-32.4992,1.042766,-151.0054,1.020317,89.4045,33.94,-59.979,29.5114,-178.7775,40.2202,62.0085
287274,SLG,40,1.019168,-32.1968,1.040247,-150.9978,1.021434,89.278,33.8464,-59.6842,29.5797,-178.7624,40.1774,61.8794
287274,LL,0,0.109509,-52.6883,0.088995,160.7917,1.315071,87.9928,3.7002,-80.153,2.6936,133.1248,48.2443,60.5069
287274,LL,10,0.984503,-33.4935,1.031237,-154.9063,1.04878,90.0216,35.0051,-60.8919,29.8268,177.3557,39.1624,62.5588
287274,LL,20,1.003432,-32.3316,1.030157,-152.8377,1.033578,89.6063,34.3617,-59.7781,29.8566,179.4275,39.7196,62.1795
287274,LL,30,1.011442,-31.9917,1.031167,-152.2241,1.030631,89.381,34.0973,-59.4589,29.8286,-179.9618,39.8297,61.9611
287274,LL,40,1.015486,-31.8176,1.031597,-151.9156,1.02919,89.2645,33.9654,-59.2953,29.8167,-179.6546,39.8837,61.848
287274,3LG,0,0.109915,-67.8344,0.110132,172.2841,0.109704,52.2266,3.7136,-95.2995,3.3336,144.6148,4.4236,24.8571
287274,3LG,10,1.008938,-33.4498,1.014009,-153.1701,1.006526,86.7308,34.1795,-60.9105,30.3119,179.1421,40.7553,59.3662
287274,3LG,20,1.01846,-32.3763,1.023415,-152.0895,1.015885,87.8036,33.8692,-59.8618,30.0448,-179.8045,40.3905,60.4177
287274,3LG,30,1.021588,-32.0129,1.026499,-151.7237,1.018956,88.1664,33.7686,-59.5067,29.9584,-179.4478,40.2723,60.7735
287274,3LG,40,1.023143,-31.8303,1.02803,-151.5398,1.020481,88.3488,33.7188,-59.3281,29.9157,-179.2684,40.2139,60.9524
283954,SLG,0,0.08038,-57.5647,1.275349,-167.6066,1.292354,103.9334,2.7159,-85.0235,35.1354,164.5777,47.4111,76.4473
283954,SLG,10,0.987609,-35.5342,1.067799,-151.1078,1.009854,90.6942,34.8975,-62.9404,29.4177,-178.9235,40.6248,63.3221
283954,SLG,20,1.008055,-33.4578,1.050738,-151.0068,1.016453,89.7947,34.2086,-60.9162,29.2977,-178.8029,40.3686,62.4076
283954,SLG,30,1.014719,-32.7422,1.044783,-150.9905,1.019091,89.495,33.9904,-60.2179,29.457,-178.7687,40.2671,62.1018
283954,SLG,40,1.018018,-32.3803,1.041768,-150.9855,1.020491,89.3455,33.8835,-59.8646,29.5384,-178.7547,40.2135,61.9492
283954,LL,0,0.116468,-53.96,0.095305,160.7533,1.315507,88.117,3.9353,-81.4245,2.8846,133.0862,48.2603,60.6311
283954,LL,10,0.976296,-33.8863,1.031437,-155.5835,1.051954,90.2863,35.2922,-61.2644,29.8213,176.678,39.0481,62.8159
283954,LL,20,0.999254,-32.5501,1.030653,-153.1784,1.034921,89.7555,34.5014,-59.9859,29.8429,179.0854,39.6697,62.3256
283954,LL,30,1.008625,-32.1423,1.031587,-152.4524,1.031477,89.4846,34.1896,-59.6023,29.8169,179.8086,39.7979,62.0627
283954,LL,40,1.013362,-31.9325,1.031947,-152.0872,1.029804,89.3437,34.0345,-59.4047,29.8071,-179.8272,39.8607,61.9258
283954,3LG,0,0.11685,-68.4758,0.117044,171.5997,0.116671,51.5676,3.9479,-95.9409,3.5428,143.9304,4.7045,24.1981
283954,3LG,10,1.006314,-33.8475,1.011505,-153.5761,1.004065,86.3348,34.2661,-61.3014,30.3838,178.7433,40.8525,58.9757
283954,3LG,20,1.017199,-32.5799,1.022224,-152.2972,1.01471,87.6011,33.9099,-60.0622,30.0784,179.9912,40.4359,60.218
283954,3LG,30,1.02076,-32.1498,1.025719,-151.8633,1.018185,88.0305,33.7952,-59.6414,29.9802,-179.585,40.3019,60.6394
283954,3LG,40,1.022527,-31.9333,1.027451,-151.6449,1.019909,88.2465,33.7385,-59.4295,29.9318,-179.3717,40.2358,60.8514
283956,SLG,0,0.251927,-64.2987,1.269642,-164.3198,1.219441,103.6676,8.5117,-91.7618,34.9782,167.8645,44.7362,76.1815
283956,SLG,10,0.987977,-35.4487,1.067176,-151.1126,1.010228,90.6652,34.8849,-62.8559,29.4005,-178.9283,40.6102,63.2923
283956,SLG,20,1.008136,-33.4353,1.050571,-151.0089,1.016565,89.7876,34.2059,-60.8939,29.3022,-178.8045,40.3642,62.4002
283956,SLG,30,1.014753,-32.732,1.044706,-150.9916,1.019144,89.4918,33.9892,-60.2078,29.4591,-178.7695,40.2651,62.0985
283956,SLG,40,1.018037,-32.3744,1.041724,-150.9861,1.020521,89.3437,33.8828,-59.8589,29.5396,-178.7552,40.2123,61.9473
283956,LL,0,0.302685,-58.0738,0.289457,166.4694,1.278999,89.4836,10.2268,-85.5385,8.7614,138.8007,46.921,61.9977
283956,LL,10,0.977458,-33.8404,1.03088,-155.5018,1.051577,90.2463,35.2512,-61.2213,29.8367,176.7613,39.0617,62.7768
283956,LL,20,0.999553,-32.5366,1.030479,-153.1578,1.034845,89.7441,34.4914,-59.9731,29.8477,179.1064,39.6725,62.3143
283956,LL,30,1.008761,-32.136,1.031503,-152.4431,1.031445,89.4793,34.1851,-59.5963,29.8192,179.8181,39.7991,62.0575
283956,LL,40,1.013439,-31.9288,1.031898,-152.082,1.029786,89.3407,34.032,-59.4012,29.8084,-179.8219,39.8613,61.9227
283956,3LG,0,0.316502,-66.4214,0.317282,173.6618,0.316057,53.6416,10.6934,-93.8864,9.6038,145.9925,12.7444,26.2722
283956,3LG,10,1.006433,-33.8108,1.011614,-153.5387,1.004168,86.3713,34.2621,-61.2651,30.3807,178.7804,40.8484,59.012
283956,3LG,20,1.017225,-32.5705,1.022246,-152.2876,1.014731,87.6105,33.9091,-60.0528,30.0777,-179.9992,40.4351,60.2273
283956,3LG,30,1.02077,-32.1455,1.025728,-151.8589,1.018194,88.0347,33.7948,-59.6372,29.9799,-179.5807,40.3016,60.6436
283956,3LG,40,1.022532,-31.9309,1.027456,-151.6424,1.019913,88.2489,33.7383,-59.4271,29.9317,-179.3693,40.2356,60.8538
189963,SLG,0,0.000767,-86.9797,1.306608,-165.3791,1.243372,105.4004,5521.5614,-86.9798,35.9965,166.8052,45.6141,77.9142
189963,SLG,10,0.952066,-37.4757,1.087182,-151.4081,1.009623,91.2164,717.7731,-38.8009,29.9517,-179.2238,40.6341,63.8448
189963,SLG,20,0.988078,-34.3757,1.057962,-150.9938,1.012655,90.1424,386.9857,-36.7537,29.1467,-178.8095,40.5156,62.7639
189963,SLG,30,1.001303,-33.3698,1.049737,-150.9738,1.01634,89.7277,271.321,-36.7226,29.3244,-178.7668,40.3729,62.3409
189963,SLG,40,1.007922,-32.8569,1.045533,-150.9698,1.018343,89.5203,212.3605,-37.1172,29.4369,-178.7502,40.2958,62.1288
189963,LL,0,0.001079,-67.8833,0.001131,141.1257,1.312976,89.4994,7769.6874,-67.8835,8141.4706,141.1256,48.1674,62.0135
189963,LL,10,0.9311,-34.8346,1.002479,-157.2859,1.060231,90.838,703.4153,-36.2144,749.0209,-158.374,38.8955,63.3523
189963,LL,20,0.979746,-33.3089,1.022158,-154.3293,1.044519,89.8938,384.2565,-35.7219,394.8323,-156.3596,39.3169,62.4411
189963,LL,30,0.992414,-32.5319,1.022805,-153.0608,1.033817,89.7268,269.471,-35.9345,272.4305,-156.0023,39.7107,62.2995
189963,LL,40,1.001076,-32.2316,1.025438,-152.5475,1.031514,89.5312,211.3448,-36.5383,211.5741,-156.3279,39.7966,62.1092
189963,3LG,0,0.001235,-83.0259,0.001235,156.9753,0.001236,36.9821,8892.4817,-83.0261,8894.5993,156.9752,8896.5573,36.982
189963,3LG,10,0.977278,-35.1126,0.982806,-154.8645,0.975531,85.0828,735.0837,-36.3766,735.4014,-155.9921,739.9281,83.5906
189963,3LG,20,1.000041,-33.1327,1.005234,-152.8605,0.997809,87.055,390.9127,-35.4617,389.1927,-154.95,396.1482,84.3233
189963,3LG,30,1.00924,-32.5256,1.014321,-152.246,1.00684,87.6595,272.9773,-35.8348,270.6214,-155.2285,278.4411,83.8028
189963,3LG,40,1.013857,-32.2179,1.018876,-151.9346,1.011371,87.9656,213.2433,-36.4385,210.5687,-155.7541,218.8547,83.0764
181977,SLG,0,0.173177,-34.8713,1.261883,-163.3473,1.198905,103.2604,5.8512,-62.3345,34.7644,168.837,43.9828,75.7743
181977,SLG,10,0.952595,-37.1581,1.085641,-151.4432,1.010909,91.1577,36.1505,-64.4786,29.9092,-179.259,40.5839,63.7832
181977,SLG,20,0.988476,-34.254,1.05735,-151.0039,1.013109,90.1178,34.8677,-61.6625,29.1397,-178.819,40.4979,62.7383
181977,SLG,30,1.001598,-33.2977,1.049372,-150.9786,1.016593,89.7126,34.4229,-60.7395,29.3341,-178.7706,40.3632,62.3251
181977,SLG,40,1.008158,-32.8063,1.045275,-150.9726,1.018513,89.5093,34.2052,-60.265,29.4438,-178.7523,40.2893,62.1175
181977,LL,0,0.191529,-35.367,0.172642,-160.4807,1.267631,89.4295,6.4713,-62.8325,5.2256,171.8521,46.504,61.9436
181977,LL,10,0.933855,-34.5678,1.001077,-157.0423,1.059984,90.7374,36.862,-61.8442,30.6878,175.3067,38.8864,63.2517
181977,LL,20,0.980758,-33.2069,1.021801,-154.2338,1.044454,89.8587,35.1355,-60.596,30.0904,178.0558,39.3193,62.4062
181977,LL,30,0.993058,-32.4727,1.022689,-152.9997,1.033733,89.7062,34.7109,-59.8927,30.0653,179.2874,39.7138,62.2791
181977,LL,40,1.001533,-32.1905,1.025392,-152.5036,1.031445,89.5171,34.4251,-59.6322,29.9894,179.7756,39.7992,62.0953
181977,3LG,0,0.186563,-39.4848,0.186781,-159.4743,0.186663,80.5589,6.3032,-66.9498,5.6537,172.8563,7.5268,53.1894
181977,3LG,10,0.978025,-34.9232,0.983566,-154.6782,0.976306,85.2712,35.2312,-62.3055,31.2132,177.7198,41.9842,57.9731
181977,3LG,20,1.000406,-33.0541,1.005618,-152.7836,0.998196,87.1336,34.4628,-60.4929,30.5545,179.5526,41.0861,59.7876
181977,3LG,30,1.009478,-32.4772,1.014576,-152.1987,1.007096,87.708,34.1617,-59.9394,30.2956,-179.8882,40.7329,60.3422
181977,3LG,40,1.014034,-32.1832,1.019068,-151.9007,1.011562,88.0006,34.0126,-59.6572,30.1676,-179.6032,40.5582,60.6246
181924,SLG,0,0.212532,-17.7619,1.23716,-163.7928,1.210195,102.1178,7.1809,-45.2263,34.0833,168.3915,44.397,74.6317
181924,SLG,10,0.950512,-37.1265,1.085887,-151.4862,1.011503,91.1944,36.2282,-64.4419,29.916,-179.3019,40.5608,63.8186
181924,SLG,20,0.987798,-34.2454,1.057452,-151.0172,1.013268,90.1309,34.8911,-61.6521,29.1406,-178.8325,40.4918,62.7511
181924,SLG,30,1.00123,-33.294,1.049462,-150.9849,1.016661,89.7205,34.4352,-60.7349,29.3317,-178.7772,40.3605,62.3329
181924,SLG,40,1.007914,-32.8039,1.045339,-150.9767,1.018554,89.5147,34.2132,-60.262,29.4421,-178.7566,40.2877,62.1228
181924,LL,0,0.192771,-17.7103,0.212769,-132.5134,1.256272,88.7816,6.5132,-45.1765,6.4403,-160.181,46.0872,61.2957
181924,LL,10,0.932966,-34.4904,0.998866,-157.0673,1.060802,90.7171,36.8965,-61.7647,30.7531,175.288,38.9164,63.2314
181924,LL,20,0.980323,-33.1809,1.021125,-154.246,1.044804,89.8573,35.1506,-60.5689,30.1095,178.0456,39.3066,62.404
181924,LL,30,0.992819,-32.4591,1.02236,-153.005,1.03391,89.7064,34.719,-59.8785,30.0746,179.283,39.7073,62.2788
181924,LL,40,1.001363,-32.1816,1.025185,-152.5069,1.031563,89.5177,34.4307,-59.6228,29.9952,179.7729,39.7948,62.0957
181924,3LG,0,0.197256,-13.3188,0.197453,-133.3057,0.197395,106.7164,6.6645,-40.7839,5.9767,-160.975,7.9596,79.347
181924,3LG,10,0.976944,-34.9165,0.982483,-154.6722,0.975232,85.2779,35.2693,-62.2962,31.2464,177.7287,42.0294,57.982
181924,3LG,20,1.000059,-33.0498,1.005277,-152.7796,0.997855,87.1382,34.4745,-60.4877,30.5645,179.5575,41.0998,59.793
181924,3LG,30,1.009288,-32.4741,1.014392,-152.1958,1.006911,87.7114,34.1679,-59.9358,30.3009,-179.8847,40.7402,60.346
181924,3LG,40,1.013908,-32.1807,1.018947,-151.8984,1.011439,88.0033,34.0167,-59.6544,30.171,-179.6005,40.563,60.6276
181993,SLG,0,0.275801,-18.5996,1.216386,-163.2109,1.199554,101.0884,9.3185,-46.0642,33.511,168.9734,44.0066,73.6023
181993,SLG,10,0.949503,-37.0464,1.085675,-151.5191,1.01215,91.2009,36.2659,-64.3595,29.9102,-179.3348,40.5356,63.8236
181993,SLG,20,0.987428,-34.2267,1.057444,-151.0278,1.01344,90.1364,34.9038,-61.6325,29.1406,-178.8431,40.4851,62.7562
181993,SLG,30,1.001028,-33.2864,1.049484,-150.9901,1.016735,89.7243,34.442,-60.7268,29.3311,-178.7824,40.3576,62.3365
181993,SLG,40,1.007781,-32.8,1.045362,-150.9799,1.018595,89.5176,34.2176,-60.2577,29.4415,-178.7598,40.2861,62.1255
181993,LL,0,0.251345,-18.3675,0.276768,-133.544,1.238832,88.5919,8.4921,-45.8334,8.3775,-161.2121,45.4474,61.106
181993,LL,10,0.933278,-34.3992,0.997209,-157.0341,1.06119,90.6771,36.8844,-61.6743,30.8022,175.3259,38.9306,63.1914
181993,LL,20,0.980299,-33.1533,1.020617,-154.2423,1.044996,89.8483,35.1515,-60.5413,30.1239,178.0508,39.2996,62.3945
181993,LL,30,0.992767,-32.4459,1.022116,-153.0047,1.034018,89.7031,34.7209,-59.8652,30.0814,179.284,39.7032,62.2753
181993,LL,40,1.001315,-32.1738,1.025037,-152.5074,1.031635,89.5163,34.4323,-59.6149,29.9993,179.7728,39.7921,62.094
181993,3LG,0,0.257401,-14.2363,0.25773,-134.1967,0.257524,105.8124,8.6966,-41.7014,7.8012,-161.8661,10.3842,78.443
181993,3LG,10,0.976549,-34.886,0.982054,-154.6399,0.974801,85.3076,35.2832,-62.2647,31.2595,177.7622,42.0475,58.0126
181993,3LG,20,0.999918,-33.042,1.005125,-152.7711,0.997702,87.1459,34.4792,-60.4795,30.5689,179.5665,41.1059,59.801
181993,3LG,30,1.009211,-32.4705,1.014308,-152.1918,1.006826,87.715,34.1705,-59.932,30.3033,-179.8805,40.7435,60.3497
181993,3LG,40,1.013856,-32.1787,1.018891,-151.896,1.011382,88.0054,34.0184,-59.6522,30.1726,-179.5979,40.5652,60.6298
181994,SLG,0,0.33737,-20.5379,1.19774,-162.472,1.186214,100.119,11.3986,-48.0026,32.9973,169.7123,43.5172,72.633
181994,SLG,10,0.948838,-36.9446,1.085237,-151.5486,1.012844,91.1933,36.2908,-64.2561,29.8981,-179.3643,40.5086,63.8144
181994,SLG,20,0.987196,-34.2005,1.057342,-151.0371,1.013634,90.1361,34.9118,-61.6057,29.1397,-178.8522,40.4775,62.7554
181994,SLG,30,1.000913,-33.2746,1.049443,-150.9944,1.016824,89.7244,34.4458,-60.7146,29.3322,-178.7866,40.3542,62.3364
181994,SLG,40,1.007713,-32.7932,1.045339,-150.9824,1.018646,89.5177,34.2199,-60.2507,29.4421,-178.7623,40.2841,62.1255
181994,LL,0,0.315671,-20.1975,0.339073,-136.8023,1.221808,88.4933,10.6655,-47.6632,10.2634,-164.4707,44.8229,61.0075
181994,LL,10,0.933964,-34.3041,0.995697,-156.9748,1.06138,90.6289,36.8578,-61.5808,30.8472,175.3894,38.9376,63.1432
181994,LL,20,0.980441,-33.1246,1.020153,-154.2292,1.045104,89.835,35.1465,-60.5129,30.137,178.0652,39.2956,62.381
181994,LL,30,0.992819,-32.4324,1.021899,-152.9992,1.034076,89.6972,34.7191,-59.8518,30.0875,179.2902,39.7011,62.2692
181994,LL,40,1.001343,-32.1659,1.02491,-152.5042,1.03167,89.5129,34.4314,-59.607,30.0029,179.7764,39.7908,62.0906
181994,3LG,0,0.32154,-17.2853,0.322071,-137.2195,0.321624,102.7798,10.8636,-44.7504,9.7488,-164.8888,12.9689,75.4104
181994,3LG,10,0.976308,-34.8451,0.981783,-154.5963,0.974517,85.3486,35.2917,-62.2232,31.2678,177.8065,42.0595,58.0542
181994,3LG,20,0.999841,-33.0312,1.005037,-152.7593,0.997609,87.1567,34.4818,-60.4686,30.5715,179.5785,41.1097,59.812
181994,3LG,30,1.009173,-32.4656,1.014265,-152.1862,1.006778,87.7201,34.1717,-59.9269,30.3045,-179.8747,40.7454,60.3549
181994,3LG,40,1.013834,-32.1758,1.018865,-151.8926,1.011353,88.0084,34.0192,-59.6492,30.1734,-179.5945,40.5663,60.6329
181891,SLG,0,0.410647,-26.3427,1.182565,-161.0871,1.160029,99.1853,13.8743,-53.8074,32.5793,171.0972,42.5566,71.6993
181891,SLG,10,0.94916,-36.7609,1.084098,-151.5752,1.013797,91.1477,36.2787,-64.0732,29.8667,-179.391,40.4716,63.7667
181891,SLG,20,0.987219,-34.1473,1.057002,-151.0473,1.013949,90.1238,34.911,-61.5526,29.1387,-178.862,40.4653,62.7424
181891,SLG,30,1.000923,-33.2489,1.049281,-150.9993,1.016978,89.7182,34.4455,-60.6889,29.3365,-178.791,40.3483,62.3298
181891,SLG,40,1.007723,-32.7778,1.045247,-150.9851,1.018737,89.5137,34.2195,-60.2353,29.4446,-178.7646,40.2806,62.1214
181891,LL,0,0.407102,-27.383,0.403858,-145.6802,1.20039,88.6698,13.7546,-54.8483,12.2244,-173.3489,44.0372,61.184
181891,LL,10,0.935975,-34.1723,0.994501,-156.8385,1.061147,90.551,36.78,-61.4536,30.8829,175.5291,38.9291,63.0653
181891,LL,20,0.980994,-33.0821,1.019715,-154.1927,1.045109,89.81,35.1272,-60.4718,30.1494,178.103,39.2955,62.356
181891,LL,30,0.993076,-32.4116,1.021683,-152.9819,1.034088,89.6848,34.7104,-59.8317,30.0936,179.3081,39.7006,62.2569
181891,LL,40,1.001498,-32.1535,1.024781,-152.4936,1.031677,89.5052,34.4262,-59.595,30.0065,179.7873,39.7905,62.0829
181891,3LG,0,0.401733,-26.7456,0.402632,-146.6508,0.401668,93.3442,13.573,-54.2106,12.1873,-174.3202,16.1965,65.9748
181891,3LG,10,0.976756,-34.7637,0.982128,-154.5135,0.974902,85.424,35.2759,-62.1429,31.2573,177.8884,42.0433,58.1288
181891,3LG,20,0.999956,-33.0079,1.005105,-152.736,0.997706,87.1771,34.4779,-60.4455,30.5695,179.6016,41.1058,59.8322
181891,3LG,30,1.00923,-32.4542,1.014293,-152.175,1.006827,87.7295,34.1699,-59.9157,30.3037,-179.8636,40.7435,60.3642
181891,3LG,40,1.013871,-32.1688,1.01888,-151.8859,1.011384,88.0138,34.018,-59.6424,30.1729,-179.5878,40.5651,60.6383
255335,SLG,0,0.430969,-25.5398,1.175357,-160.9516,1.158545,98.8103,14.5609,-53.0045,32.3807,171.2327,42.5022,71.3243
255335,SLG,10,0.948528,-36.7329,1.084129,-151.5916,1.014068,91.1586,36.3024,-64.0437,29.8676,-179.4073,40.4611,63.7769
255335,SLG,20,0.991143,-34.3807,1.063006,-151.2966,1.019374,89.9526,34.7765,-61.7959,29.2856,-179.1123,40.2566,62.5588
255335,SLG,30,1.000799,-33.2487,1.049322,-151.0016,1.016996,89.7221,34.4497,-60.6885,29.3354,-178.7935,40.3476,62.3337
255335,SLG,40,1.007642,-32.7783,1.045272,-150.9866,1.018746,89.5165,34.2222,-60.2357,29.4439,-178.7663,40.2803,62.1241
255335,LL,0,0.425803,-25.4953,0.431665,-144.6803,1.195803,88.5904,14.3864,-52.9607,13.066,-172.349,43.8689,61.1046
255335,LL,10,0.935866,-34.136,0.993681,-156.8222,1.061346,90.5376,36.7842,-61.417,30.9074,175.5476,38.9363,63.0519
255335,LL,20,0.980898,-33.0716,1.019463,-154.1927,1.045201,89.8081,35.1306,-60.4611,30.1566,178.1037,39.2921,62.3539
255335,LL,30,0.993007,-32.4071,1.021565,-152.9834,1.034139,89.6849,34.7127,-59.827,30.097,179.3069,39.6987,62.2568
255335,LL,40,1.001445,-32.151,1.024712,-152.4952,1.031711,89.5058,34.428,-59.5924,30.0084,179.7859,39.7893,62.0834
255335,3LG,0,0.4267,-24.9396,0.427725,-144.8391,0.426692,95.1543,14.4165,-52.4047,12.9468,-172.5085,17.2056,67.7849
255335,3LG,10,0.976337,-34.7494,0.981765,-154.496,0.974471,85.4445,35.2907,-62.1276,31.2684,177.9069,42.0614,58.1502
255335,3LG,20,0.999814,-33.0057,1.004992,-152.7321,0.997553,87.1824,34.4827,-60.443,30.5728,179.6059,41.1119,59.8379
255335,3LG,30,1.009155,-32.4539,1.014237,-152.1733,1.006743,87.732,34.1723,-59.9151,30.3053,-179.8618,40.7468,60.3669
255335,3LG,40,1.013822,-32.169,1.018846,-151.8851,1.011328,88.0153,34.0196,-59.6424,30.1739,-179.5868,40.5673,60.6399
182030,SLG,0,0.451582,-27.0962,1.172077,-160.5276,1.150608,98.5727,15.2574,-54.561,32.2904,171.6567,42.211,71.0867
182030,SLG,10,0.94874,-36.6753,1.08378,-151.5982,1.014344,91.144,36.2945,-63.9866,29.8579,-179.4139,40.4504,63.7618
182030,SLG,20,0.991168,-34.3647,1.062912,-151.2994,1.019466,89.9494,34.7757,-61.7799,29.283,-179.1151,40.2531,62.5554
182030,SLG,30,1.000804,-33.2414,1.049281,-151.0031,1.01704,89.7208,34.4495,-60.6812,29.3365,-178.7948,40.3459,62.3323
182030,SLG,40,1.007643,-32.7742,1.045249,-150.9875,1.018771,89.5158,34.2222,-60.2316,29.4445,-178.7671,40.2793,62.1234
182030,LL,0,0.453338,-26.7923,0.454527,-147.0974,1.190418,88.6862,15.3166,-54.2576,13.7581,-174.7662,43.6714,61.2004
182030,LL,10,0.936476,-34.0991,0.993465,-156.7715,1.06122,90.516,36.7607,-61.3816,30.9138,175.599,38.9317,63.0303
182030,LL,20,0.98106,-33.0596,1.019358,-154.1798,1.04519,89.8012,35.1249,-60.4494,30.1595,178.1169,39.2925,62.347
182030,LL,30,0.993076,-32.4012,1.02151,-152.9778,1.03414,89.6817,34.7103,-59.8213,30.0985,179.3126,39.6987,62.2536
182030,LL,40,1.001484,-32.1475,1.024679,-152.4921,1.031713,89.5039,34.4267,-59.5891,30.0094,179.7891,39.7892,62.0815
182030,3LG,0,0.454331,-26.9907,0.455508,-146.8844,0.454302,93.1091,15.3501,-54.4557,13.7878,-174.5537,18.3189,65.7397
182030,3LG,10,0.976472,-34.719,0.981891,-154.465,0.974595,85.4747,35.2859,-62.0975,31.2645,177.9375,42.0562,58.1801
182030,3LG,20,0.999839,-32.9976,1.005014,-152.7238,0.997575,87.1904,34.4818,-60.4349,30.5722,179.6141,41.111,59.8459
182030,3LG,30,1.009165,-32.4501,1.014245,-152.1696,1.006751,87.7357,34.172,-59.9114,30.3051,-179.8581,40.7465,60.3705
182030,3LG,40,1.013827,-32.1669,1.01885,-151.8829,1.011332,88.0174,34.0194,-59.6403,30.1738,-179.5847,40.5671,60.6419
182153,SLG,0,0.567631,-32.3408,1.152202,-158.3477,1.111907,97.1052,21.0639,-59.6885,31.7428,173.8366,40.7912,69.6193
182153,SLG,10,0.950404,-36.2999,1.081403,-151.637,1.01607,91.0432,36.2322,-63.6151,29.7925,-179.4528,40.3837,63.657
182153,SLG,20,0.987228,-34.0195,1.056317,-151.0731,1.014686,90.1036,34.9107,-61.4248,29.1505,-178.886,40.4368,62.7206
182153,SLG,30,1.000865,-33.1903,1.048971,-151.0129,1.017333,89.7107,34.4475,-60.6302,29.3448,-178.8037,40.3346,62.3216
182153,SLG,40,1.007667,-32.7445,1.045073,-150.9934,1.018942,89.5102,34.2214,-60.202,29.4492,-178.7724,40.2728,62.1174
182153,LL,0,0.595869,-32.3668,0.569687,-154.7459,1.158818,89.015,22.8697,-59.6759,19.0285,177.7208,42.5121,61.5292
182153,LL,10,0.941272,-33.8394,0.992026,-156.4649,1.06042,90.3641,36.5768,-61.133,30.957,175.9095,38.9024,62.8784
182153,LL,20,0.98235,-32.9698,1.018621,-154.0998,1.045138,89.7516,35.0799,-60.3629,30.1804,178.199,39.2944,62.2975
182153,LL,30,0.993637,-32.3567,1.021119,-152.9426,1.034154,89.6583,34.6913,-59.7782,30.1096,179.349,39.6982,62.2301
182153,LL,40,1.0018,-32.121,1.024438,-152.4721,1.031729,89.4901,34.4161,-59.5633,30.0161,179.8099,39.7886,62.0677
182153,3LG,0,0.589205,-34.4001,0.591372,-154.246,0.588866,85.7377,22.4439,-61.7176,20.2726,178.2533,26.8048,58.4974
182153,3LG,10,0.977927,-34.5379,0.983304,-154.2794,0.975971,85.6565,35.2347,-61.92,31.2212,178.1193,41.9983,58.359
182153,3LG,20,1.000153,-32.9462,1.005317,-152.6708,0.997862,87.2425,34.4713,-60.3843,30.5633,179.6663,41.0995,59.8973
182153,3LG,30,1.009293,-32.4261,1.01437,-152.1446,1.006864,87.7603,34.1678,-59.8878,30.3015,-179.8334,40.742,60.3949
182153,3LG,40,1.013894,-32.153,1.018917,-151.8683,1.01139,88.0319,34.0172,-59.6266,30.1719,-179.5703,40.5649,60.6563
182158,SLG,0,0.604713,-32.6878,1.143651,-157.7664,1.102909,96.5222,23.4353,-59.9857,31.5073,174.4179,40.4612,69.0363
182158,SLG,10,0.950766,-36.1539,1.080543,-151.6573,1.016805,91.0099,36.2187,-63.47,29.7688,-179.473,40.3553,63.622
182158,SLG,20,0.987213,-33.9768,1.056084,-151.082,1.014939,90.0966,34.9112,-61.382,29.1563,-178.8943,40.427,62.713
182158,SLG,30,1.000838,-33.1702,1.048862,-151.0176,1.017457,89.7079,34.4484,-60.61,29.3477,-178.808,40.3298,62.3185
182158,SLG,40,1.007646,-32.7328,1.045011,-150.9963,1.019016,89.5087,34.2221,-60.1902,29.4509,-178.7751,40.27,62.1157
182158,LL,0,0.634201,-32.6167,0.60812,-155.0199,1.148623,89.0428,25.3211,-59.8823,21.2327,177.5022,42.1381,61.557
182158,LL,10,0.942963,-33.7394,0.991142,-156.3476,1.060191,90.3035,36.5125,-61.0371,30.9835,176.0293,38.894,62.8178
182158,LL,20,0.982806,-32.9335,1.01822,-154.0697,1.045152,89.7315,35.064,-60.3277,30.1919,178.2303,39.2939,62.2773
182158,LL,30,0.993831,-32.3385,1.02091,-152.9297,1.034179,89.6488,34.6847,-59.7605,30.1155,179.3625,39.6972,62.2206
182158,LL,40,1.001908,-32.1101,1.02431,-152.4649,1.031748,89.4846,34.4125,-59.5527,30.0197,179.8175,39.7879,62.0621
182158,3LG,0,0.628018,-34.63,0.630557,-154.4529,0.627516,85.5222,24.9255,-61.9019,22.5195,178.0961,29.7611,58.3207
182158,3LG,10,0.97825,-34.4705,0.983597,-154.2108,0.976263,85.7228,35.2233,-61.8534,31.2123,178.1871,41.986,58.4247
182158,3LG,20,1.000209,-32.9267,1.005362,-152.651,0.99791,87.2615,34.4694,-60.365,30.562,179.6859,41.0976,59.9161
182158,3LG,30,1.009312,-32.4169,1.014384,-152.1353,1.00688,87.7692,34.1672,-59.8786,30.3011,-179.8242,40.7414,60.4038
182158,3LG,40,1.013903,-32.1476,1.018923,-151.8629,1.011397,88.0371,34.0169,-59.6212,30.1717,-179.5649,40.5646,60.6615
182162,SLG,0,0.635682,-32.8159,1.136219,-157.293,1.096005,96.015,25.4157,-60.0797,31.3026,174.8913,40.2079,68.5292
182162,SLG,10,0.951085,-36.0171,1.079748,-151.6768,1.017504,90.9792,36.2068,-63.3339,29.7469,-179.4926,40.3284,63.5897
182162,SLG,20,0.991374,-34.1708,1.061777,-151.3348,1.020573,89.9112,34.7687,-61.5866,29.2518,-179.1506,40.2107,62.5147
182162,SLG,30,1.000805,-33.1512,1.048764,-151.0222,1.017578,89.7054,34.4495,-60.5909,29.3503,-178.8124,40.3252,62.3157
182162,SLG,40,1.00762,-32.7219,1.044955,-150.9991,1.019087,89.5074,34.2229,-60.1792,29.4524,-178.7778,40.2672,62.1142
182162,LL,0,0.665078,-32.7021,0.639821,-155.0024,1.140013,89.0523,27.2957,-59.9386,23.0508,177.557,41.8223,61.5665
182162,LL,10,0.944543,-33.6479,0.990291,-156.237,1.059982,90.2465,36.4526,-60.9492,31.0091,176.1423,38.8863,62.7608
182162,LL,20,0.98324,-32.8993,1.017821,-154.0413,1.045173,89.7122,35.0489,-60.2946,30.2032,178.2599,39.2932,62.258
182162,LL,30,0.994016,-32.3211,1.020702,-152.9177,1.034209,89.6397,34.6784,-59.7436,30.1214,179.3752,39.6961,62.2115
182162,LL,40,1.00201,-32.0997,1.024183,-152.4582,1.03177,89.4793,34.4091,-59.5425,30.0233,179.8245,39.7871,62.0568
182162,3LG,0,0.659227,-34.6243,0.662088,-154.4278,0.658574,85.5397,26.9213,-61.866,24.3278,178.1541,32.1373,58.3638
182162,3LG,10,0.978533,-34.4084,0.983851,-154.1475,0.976516,85.7839,35.2134,-61.792,31.2045,178.2497,41.9754,58.4852
182162,3LG,20,1.000256,-32.9087,1.005397,-152.6328,0.997949,87.279,34.4678,-60.3471,30.561,179.704,41.096,59.9336
182162,3LG,30,1.009328,-32.4085,1.014394,-152.1268,1.006893,87.7774,34.1666,-59.8702,30.3008,-179.8157,40.7409,60.412
182162,3LG,40,1.01391,-32.1427,1.018927,-151.858,1.011402,88.0418,34.0167,-59.6164,30.1716,-179.56,40.5644,60.6662
